@<TRIPOS>MOLECULE
1K1N
81 83 1 0 0 
SMALL
REMARK CHARGE 0


@<TRIPOS>ATOM
  1 C51     -1.1610    15.9210    18.7940 C.ar  1 CCR  -0.1440 
  2 C52     -2.2510    16.2390    17.9570 C.ar  1 CCR  -0.1500 
  3 H52     -2.8850    17.0810    18.1940 H     1 CCR   0.1500 
  4 C53     -2.4960    15.4860    16.8130 C.ar  1 CCR  -0.1500 
  5 H53     -3.3230    15.7700    16.1790 H     1 CCR   0.1500 
  6 C55     -0.6290    14.0620    17.3350 C.ar  1 CCR  -0.1500 
  7 H55      0.0210    13.2290    17.1190 H     1 CCR   0.1500 
  8 C56     -0.3600    14.8220    18.4810 C.ar  1 CCR  -0.1500 
  9 H56      0.4760    14.5650    19.1160 H     1 CCR   0.1500 
 10 C54     -1.7020    14.3660    16.4650 C.ar  1 CCR  -0.0220 
 11 C57     -1.9850    13.5460    15.2290 C.cat 1 CCR   0.7310 
 12 N58     -2.6060    14.0610    14.1910 N.pl3 1 CCR  -0.7540 
 13 H581    -2.9810    13.4350    13.4510 H     1 CCR   0.4500 
 14 H582    -2.9310    15.0360    14.1830 H     1 CCR   0.4500 
 15 N59     -1.6020    12.2830    15.1330 N.pl3 1 CCR  -0.7540 
 16 H592    -1.0470    11.8670    15.8860 H     1 CCR   0.4500 
 17 H591    -2.0090    11.6830    14.4110 H     1 CCR   0.4500 
 18 C44     -0.8830    16.7710    20.0210 C.3   1 CCR  -0.0160 
 19 H441    -0.4550    16.1440    20.7920 H     1 CCR   0.0800 
 20 H442    -1.8030    17.2250    20.3910 H     1 CCR   0.0800 
 21 C41      0.1430    17.8700    19.6190 C.3   1 CCR   0.2810 
 22 H41      1.0060    17.4080    19.1390 H     1 CCR   0.0800 
 23 N40     -0.5090    18.8490    18.7710 N.am  1 CCR  -0.7300 
 24 H40     -1.2540    19.4410    19.1700 H     1 CCR   0.3700 
 25 C42      0.5480    18.6580    20.8480 C.2   1 CCR   0.5690 
 26 O43     -0.2610    18.7330    21.7610 O.2   1 CCR  -0.5700 
 27 N60      1.7630    19.2570    20.9060 N.am  1 CCR  -0.6600 
 28 C61      2.1020    20.0820    22.0650 C.3   1 CCR   0.1400 
 29 H611     3.0770    19.7850    22.4520 H     1 CCR   0.0800 
 30 H612     1.3620    19.9670    22.8590 H     1 CCR   0.0800 
 31 C62      2.1600    21.5440    21.6280 C.3   1 CCR  -0.1600 
 32 H621     2.4890    22.1640    22.4620 H     1 CCR   0.0800 
 33 H622     1.1680    21.8690    21.3110 H     1 CCR   0.0800 
 34 C63      3.1630    21.6850    20.4460 C.3   1 CCR  -0.1600 
 35 H631     4.1610    21.3770    20.7610 H     1 CCR   0.0800 
 36 H632     3.1990    22.7250    20.1210 H     1 CCR   0.0800 
 37 C64      2.6840    20.8010    19.2710 C.3   1 CCR  -0.1600 
 38 H641     3.3760    20.8990    18.4350 H     1 CCR   0.0800 
 39 H642     1.6960    21.1280    18.9410 H     1 CCR   0.0800 
 40 C65      2.6240    19.3280    19.7190 C.3   1 CCR   0.1400 
 41 H651     2.2700    18.7200    18.8890 H     1 CCR   0.0800 
 42 H652     3.6270    18.9910    19.9870 H     1 CCR   0.0800 
 43 N23     -0.6380    20.4090    15.4420 N.am  1 CCR  -0.9140 
 44 H23     -0.6780    19.7040    14.7090 H     1 CCR   0.4200 
 45 S20     -0.5480    21.9710    14.9630 S.o2  1 CCR   1.4470 
 46 O21     -1.7860    22.5480    15.4320 O.2   1 CCR  -0.6500 
 47 O22     -0.4330    21.9640    13.5300 O.2   1 CCR  -0.6500 
 48 C11      0.9230    22.5860    15.6520 C.ar  1 CCR  -0.0090 
 49 C12      0.8790    23.6800    16.5800 C.ar  1 CCR  -0.1440 
 50 C13      2.0660    24.1870    17.1710 C.ar  1 CCR  -0.1440 
 51 C14      3.3110    23.6100    16.8580 C.ar  1 CCR   0.0820 
 52 C15      3.3440    22.5220    15.9590 C.ar  1 CCR  -0.1500 
 53 H15      4.2980    22.0740    15.7230 H     1 CCR   0.1500 
 54 C16      2.1830    22.0070    15.3510 C.ar  1 CCR  -0.1440 
 55 C17     -0.4370    24.3850    16.9880 C.3   1 CCR  -0.0960 
 56 H171    -0.9510    24.7500    16.0990 H     1 CCR   0.0800 
 57 H172    -0.2600    25.2330    17.6450 H     1 CCR   0.0800 
 58 H173    -1.0800    23.6790    17.5130 H     1 CCR   0.0800 
 59 C18      2.0720    25.3710    18.1710 C.3   1 CCR  -0.0960 
 60 H181     1.6730    26.2620    17.6860 H     1 CCR   0.0800 
 61 H182     3.0840    25.5880    18.5130 H     1 CCR   0.0800 
 62 H183     1.4620    25.1200    19.0390 H     1 CCR   0.0800 
 63 C10      2.5000    20.8290    14.3960 C.3   1 CCR  -0.0960 
 64 H101     1.6220    20.2000    14.2590 H     1 CCR   0.0800 
 65 H102     3.2960    20.2120    14.8140 H     1 CCR   0.0800 
 66 H103     2.8150    21.2190    13.4280 H     1 CCR   0.0800 
 67 O11      4.4940    24.1220    17.4630 O.3   1 CCR  -0.3620 
 68 C19      5.7750    23.4850    17.2280 C.3   1 CCR   0.0400 
 69 H191     6.5530    24.0230    17.7700 H     1 CCR   0.0800 
 70 H192     6.0130    23.5000    16.1640 H     1 CCR   0.0800 
 71 H193     5.7470    22.4560    17.5870 H     1 CCR   0.0800 
 72 C30     -1.0760    20.0720    16.7690 C.3   1 CCR   0.3370 
 73 H30     -1.0760    20.9690    17.3940 H     1 CCR   0.0800 
 74 C31     -2.5130    19.5450    16.6440 C.3   1 CCR  -0.2660 
 75 H311    -2.5150    18.4790    16.4250 H     1 CCR   0.0800 
 76 H312    -3.0100    20.0650    15.8270 H     1 CCR   0.0800 
 77 C32     -3.3320    19.8250    17.8750 C.2   1 CCR   0.9060 
 78 O33     -4.5130    19.4630    17.8290 O.co2 1 CCR  -0.9000 
 79 O34     -2.8240    20.4280    18.8600 O.co2 1 CCR  -0.9000 
 80 C35     -0.2230    19.0280    17.4520 C.2   1 CCR   0.5690 
 81 O36      0.6400    18.4310    16.8340 O.2   1 CCR  -0.5700 
@<TRIPOS>BOND
  1   1   2  ar  
  2   1   8  ar  
  3   1  18  1   
  4   2   3  1   
  5   2   4  ar  
  6   4   5  1   
  7   4  10  ar  
  8   6   7  1   
  9   6   8  ar  
 10   6  10  ar  
 11   8   9  1   
 12  10  11  1   
 13  11  12  ar  
 14  11  15  ar  
 15  12  13  1   
 16  12  14  1   
 17  15  16  1   
 18  15  17  1   
 19  18  19  1   
 20  18  20  1   
 21  18  21  1   
 22  21  22  1   
 23  21  23  1   
 24  21  25  1   
 25  23  24  1   
 26  23  80  am  
 27  25  26  2   
 28  25  27  am  
 29  27  28  1   
 30  27  40  1   
 31  28  29  1   
 32  28  30  1   
 33  28  31  1   
 34  31  32  1   
 35  31  33  1   
 36  31  34  1   
 37  34  35  1   
 38  34  36  1   
 39  34  37  1   
 40  37  38  1   
 41  37  39  1   
 42  37  40  1   
 43  40  41  1   
 44  40  42  1   
 45  43  44  1   
 46  43  45  am  
 47  43  72  1   
 48  45  46  2   
 49  45  47  2   
 50  45  48  1   
 51  48  49  ar  
 52  48  54  ar  
 53  49  50  ar  
 54  49  55  1   
 55  50  51  ar  
 56  50  59  1   
 57  51  52  ar  
 58  51  67  1   
 59  52  53  1   
 60  52  54  ar  
 61  54  63  1   
 62  55  56  1   
 63  55  57  1   
 64  55  58  1   
 65  59  60  1   
 66  59  61  1   
 67  59  62  1   
 68  63  64  1   
 69  63  65  1   
 70  63  66  1   
 71  67  68  1   
 72  68  69  1   
 73  68  70  1   
 74  68  71  1   
 75  72  73  1   
 76  72  74  1   
 77  72  80  1   
 78  74  75  1   
 79  74  76  1   
 80  74  77  1   
 81  77  78  ar  
 82  77  79  ar  
 83  80  81  2   
@<TRIPOS>SUBSTRUCTURE
  1 CCR  80 TEMP 0 A CCR 0
# MOE 2008.10 (io_trps.svl 2008.02)
