@<TRIPOS>MOLECULE
1B40
67 67 3 0 0 
SMALL
REMARK CHARGE 3


@<TRIPOS>ATOM
  1 N        6.9560    16.5790    15.1480 N.4   1 LYS1   0.1900 BACKBONE
  2 H3       7.6730    16.1740    14.5420 H     1 LYS1   0.2060 
  3 H1       6.1610    15.9480    15.1660 H     1 LYS1   0.2060 BACKBONE
  4 H2       7.3220    16.6500    16.0890 H     1 LYS1   0.2060 BACKBONE
  5 CA       6.5760    17.9380    14.6390 C.3   1 LYS1  -0.0270 BACKBONE
  6 HA       7.3970    18.6270    14.8420 H     1 LYS1   0.0710 BACKBONE
  7 C        5.3270    18.4650    15.3500 C.2   1 LYS1   0.6840 BACKBONE
  8 O        4.4760    17.6870    15.8460 O.2   1 LYS1  -0.5820 BACKBONE
  9 CB       6.3520    17.8970    13.1250 C.3   1 LYS1  -0.0350 
 10 HB1      7.3300    17.7870    12.6530 H     1 LYS1   0.0320 
 11 HB2      5.9510    18.8620    12.8090 H     1 LYS1   0.0320 
 12 CG       5.4560    16.7990    12.6030 C.3   1 LYS1  -0.0230 
 13 HG1      4.4750    16.9230    13.0630 H     1 LYS1   0.0450 
 14 HG2      5.8320    15.8230    12.9110 H     1 LYS1   0.0450 
 15 CD       5.2730    16.8330    11.0980 C.3   1 LYS1  -0.0430 
 16 HD1      5.0840    17.8590    10.7780 H     1 LYS1   0.0550 
 17 HD2      4.3950    16.2350    10.8450 H     1 LYS1   0.0550 
 18 CE       6.4560    16.2780    10.3050 C.3   1 LYS1   0.1380 
 19 HE1      7.3400    16.8970    10.4720 H     1 LYS1   0.0470 
 20 HE2      6.2110    16.2800     9.2430 H     1 LYS1   0.0470 
 21 NZ       6.7210    14.8680    10.7620 N.4   1 LYS1  -0.2000 
 22 HZ3      7.0990    14.8760    11.7120 H     1 LYS1   0.2840 
 23 HZ1      7.4090    14.4350    10.1640 H     1 LYS1   0.2840 
 24 HZ2      5.8740    14.3090    10.7440 H     1 LYS1   0.2840 
 25 N        5.2000    19.7800    15.4660 N.am  2 PHE2  -0.4940 BACKBONE
 26 H        5.8990    20.3870    15.0350 H     2 PHE2   0.3020 BACKBONE
 27 CA       4.0710    20.3970    16.1250 C.3   2 PHE2   0.0420 BACKBONE
 28 HA       3.9220    19.9210    17.0960 H     2 PHE2   0.0180 BACKBONE
 29 C        2.7630    20.2960    15.3130 C.2   2 PHE2   0.6730 BACKBONE
 30 O        2.7880    20.6020    14.1150 O.2   2 PHE2  -0.5850 BACKBONE
 31 CB       4.3790    21.8900    16.3530 C.3   2 PHE2  -0.0020 
 32 HB1      3.4740    22.3850    16.7080 H     2 PHE2   0.0240 
 33 HB2      4.6600    22.3580    15.4080 H     2 PHE2   0.0240 
 34 CG       5.4870    22.1170    17.3760 C.ar  2 PHE2   0.0290 
 35 CD1      6.8160    21.9900    17.0010 C.ar  2 PHE2  -0.1050 
 36 HD1      7.0770    21.7470    15.9870 H     2 PHE2   0.1120 
 37 CD2      5.1730    22.4340    18.6650 C.ar  2 PHE2  -0.1050 
 38 HD2      4.1420    22.5370    18.9630 H     2 PHE2   0.1120 
 39 CE1      7.8090    22.2020    17.9270 C.ar  2 PHE2  -0.1510 
 40 HE1      8.8390    22.1160    17.6110 H     2 PHE2   0.1160 
 41 CE2      6.1840    22.6350    19.6000 C.ar  2 PHE2  -0.1510 
 42 HE2      5.9250    22.9060    20.6140 H     2 PHE2   0.1160 
 43 CZ       7.5210    22.5190    19.2480 C.ar  2 PHE2  -0.0770 
 44 HZ       8.3080    22.6840    19.9710 H     2 PHE2   0.1000 
 45 N        1.6540    19.9130    15.9560 N.am  3 LYS3  -0.4420 BACKBONE
 46 H        1.7330    19.5240    16.8970 H     3 LYS3   0.2950 BACKBONE
 47 CA       0.3810    19.8730    15.2810 C.3   3 LYS3  -0.0880 BACKBONE
 48 HA       0.4750    20.3410    14.2990 H     3 LYS3   0.0950 BACKBONE
 49 C       -0.6880    20.6340    16.0880 C.2   3 LYS3   0.5770 BACKBONE
 50 H       -0.5120    20.9640    17.0740 H     3 LYS3   0.0000 BACKBONE
 51 O       -1.7850    20.8460    15.5250 O.2   3 LYS3  -0.7430 BACKBONE
 52 CB      -0.1240    18.4180    15.1220 C.3   3 LYS3  -0.0280 
 53 HB1     -0.5830    18.0870    16.0560 H     3 LYS3   0.0290 
 54 HB2      0.7140    17.7580    14.8970 H     3 LYS3   0.0290 
 55 CG      -1.1290    18.3540    13.9710 C.3   3 LYS3  -0.0130 
 56 HG1     -0.6110    18.0880    13.0530 H     3 LYS3   0.0390 
 57 HG2     -1.5800    19.3340    13.8150 H     3 LYS3   0.0390 
 58 CD      -2.2490    17.3730    14.2250 C.3   3 LYS3  -0.0360 
 59 HD1     -2.7340    17.6300    15.1670 H     3 LYS3   0.0540 
 60 HD2     -1.8390    16.3660    14.3160 H     3 LYS3   0.0540 
 61 CE      -3.3240    17.3910    13.1230 C.3   3 LYS3   0.1420 
 62 HE1     -3.7310    18.3980    13.0170 H     3 LYS3   0.0460 
 63 HE2     -4.1300    16.7080    13.3970 H     3 LYS3   0.0460 
 64 NZ      -2.7190    16.9480    11.8380 N.4   3 LYS3  -0.2100 
 65 HZ3     -2.0890    17.6670    11.5050 H     3 LYS3   0.2860 
 66 HZ1     -3.4550    16.8510    11.1360 H     3 LYS3   0.2860 
 67 HZ2     -2.2400    16.0550    11.9270 H     3 LYS3   0.2860 
@<TRIPOS>BOND
  1   1   2  1   
  2   1   3  1   BACKBONE
  3   1   4  1   BACKBONE
  4   1   5  1   BACKBONE
  5   5   6  1   BACKBONE
  6   5   7  1   BACKBONE
  7   5   9  1   
  8   7   8  2   BACKBONE
  9   7  25  am  BACKBONE|INTERRES
 10   9  10  1   
 11   9  11  1   
 12   9  12  1   
 13  12  13  1   
 14  12  14  1   
 15  12  15  1   
 16  15  16  1   
 17  15  17  1   
 18  15  18  1   
 19  18  19  1   
 20  18  20  1   
 21  18  21  1   
 22  21  22  1   
 23  21  23  1   
 24  21  24  1   
 25  25  26  1   BACKBONE
 26  25  27  1   BACKBONE
 27  27  28  1   BACKBONE
 28  27  29  1   BACKBONE
 29  27  31  1   
 30  29  30  2   BACKBONE
 31  29  45  am  BACKBONE|INTERRES
 32  31  32  1   
 33  31  33  1   
 34  31  34  1   
 35  34  35  ar  
 36  34  37  ar  
 37  35  36  1   
 38  35  39  ar  
 39  37  38  1   
 40  37  41  ar  
 41  39  40  1   
 42  39  43  ar  
 43  41  42  1   
 44  41  43  ar  
 45  43  44  1   
 46  45  46  1   BACKBONE
 47  45  47  1   BACKBONE
 48  47  48  1   BACKBONE
 49  47  49  1   BACKBONE
 50  47  52  1   
 51  49  50  1   BACKBONE
 52  49  51  2   BACKBONE
 53  52  53  1   
 54  52  54  1   
 55  52  55  1   
 56  55  56  1   
 57  55  57  1   
 58  55  58  1   
 59  58  59  1   
 60  58  60  1   
 61  58  61  1   
 62  61  62  1   
 63  61  63  1   
 64  61  64  1   
 65  64  65  1   
 66  64  66  1   
 67  64  67  1   
@<TRIPOS>SUBSTRUCTURE
  1 LYS1   5 TEMP 0 B LYS 1
  2 PHE2  27 TEMP 0 B PHE 2
  3 LYS3  47 TEMP 0 B LYS 1
# MOE 2008.10 (io_trps.svl 2008.02)
